96
8.6091309 0.0 0.0 0.0 8.6091309 0.0 0.0 0.0 8.6091309
O   1.55969485153113   6.71975868019533   6.72093759715236 
H   1.55555191095609   7.16819943179793   1.34951413470019  
H   1.92953865521284   5.28471452739403   6.7262639440704   
O   8.48335232351091   8.26458056751641   5.55926679240589  
H   2.2363404313023   3.70749062253338   7.28475850244128   
H   7.69241742045892   5.17851036513537   5.80695370971618  
O   1.4463619446054   8.29024446979253   2.97000165689007   
H   0.790421869563088   1.75059377343782   6.83560293642168 
H   4.18346651568562   7.1475075793934   6.76316909037526   
O   1.24025945709499   2.3958492326222   4.55277479835029   
H   3.66858678716825   4.0070466175754   8.59863650584119   
H   2.32278502435905   8.31910796776474   6.60260620543054  
O   2.20858170615501   4.61803419065695   7.45278911154542  
H   4.00445402467655   3.47313176994083   3.90600892789548  
H   0.716437435671889   5.84614877462471   0.202293471087185
O   8.09700571599656   1.4322622962748   7.24737301378349   
H   0.0335204339381659   4.24415029525858   0.96683596646336
H   6.82779048188959   3.43109950768173   6.55740758113064  
O   0.978526009544126   5.64285867984917   3.56647171821473 
H   4.81531311412736   0.25325348858157   6.48792270162408  
H   4.26963749366895   6.43020331705211   1.15366607140986  
O   3.47625749856465   6.31894106132556   1.6004622095105   
H   0.448407371897972   3.82976955865883   6.5581054319673  
H   5.9358389437514   5.88084016721814   4.18800574631717   
O   6.04866527656041   2.63502640490482   1.2483998314427   
H   5.11668900181958   4.30438514195782   2.60457617579287  
H   1.17931557442534   7.8248688297013   3.73963014248255   
O   3.48301351120291   3.29596025788474   5.56762827650994  
H   7.85421546405432   7.46409110208227   7.66119793288069  
H   6.31016434785636   6.29086447160706   5.75272137317582  
O   3.3282222078015   2.20468057420547   2.40756181148337   
H   8.46933081064739   3.08645322524904   5.39985271305868  
H   6.80600159319467   4.11624714027462   0.458316616245053 
O   8.60020731844667   1.25255519125764   1.18992457907025 
H   8.47655851866524   8.10154786118202   4.59555241203572  
H   5.60349636545042   6.16553416043013   6.94440369949079  
O   7.57033956451664   8.28006466561221   2.71383680038323  
H   1.5299989696776   3.67455398151077   0.235908039070549  
H   8.28617864701491   0.402964037059372   6.08919599309931 
O   5.99277983760773   3.01952740092723   6.00666114069484  
H   4.74577333131712   3.36739045505325   7.57722650285657  
H   7.27949061220987   1.88764923160511   7.36493737681683  
O   1.7625797921303   1.91146312818534   7.30733895161104   
H   3.95837766784993   4.09327246197727   5.24376717289969  
H   5.9512344289344   0.336574658323997   4.88545085359516  
O   7.22421450273773   6.77421711328967   7.9162136867083   
H   2.47177202145335   5.95673718698318   1.52744045198625  
H   8.21202957364374   1.72757969995384   0.323849145379851 
O   1.04294152297748   6.65123945938334   0.620228373457364 
H   5.08101211526827   2.96253551853376   5.61132328665505  
H   6.76683918360313   2.12340064886228   1.59245675553432  
O   5.73342332792293   0.423767772993253   6.91546417535805 
H   4.57304134298496   0.336735875085201   0.472846083884962
H   2.67375954399033   1.9218048346208   1.67888400121414   
O   3.27961534188712   6.41214670022578   4.45513720037276 
H   1.7286050656555   4.14460458949469   1.86407496681902   
H   2.91847027904286   2.70097836980982   6.00553898243801  
O   4.80913581390169   3.90643008578532   3.46257231204058  
H   4.4623580765198   5.06077038134721   7.69099803275912   
H   7.52309847701245   2.81665285637993   2.63578081076199  
O   5.12411236038673   8.18545146778372   0.73031904359754  
H   1.36187820466013   6.20120442321574   7.56646368292527  
H   3.65653372837407   6.05350617831098   5.21044138262644  
O   4.66961138192976   6.36659201843077   6.5304246797429   
H   2.16828051998616   0.191677432744104   3.05729772554747 
H   5.81415919654106   7.77253119710909   1.40516648867754  
O   3.16377087772325   8.5856286207595   6.2086206279437    
H   0.414198739747347   0.421671155525157   1.5767444549964 
H   7.20426708809727   6.03426487297133   0.117782981006831 
O   7.75349846845877   4.34457266306867   0.446983331779324 
H   0.741578764328579   3.0513297303809   4.15202587518806  
H   6.66898603052551   8.37399395901001   3.09950636575844  
O   6.86597098861313   5.58207914597803   5.36648719239926  
H   2.97513692454304   7.99737867937143   5.43837747143509  
H   0.216861441604973   5.08625995035029   3.26848115415712 
O   4.6670402453396   4.16522200363211   8.15381906085909   
H   6.53193666503536   0.349808616235113   7.34845444164679 
H   6.80817558337705   3.08469371155307   4.4041464140537   
O   5.43260319323044   0.450236352930919   4.04398661215936 
H   0.737054758299165   6.56705489268008   3.42410228080989 
H   1.92065486286558   1.73941649965714   4.8237881489964   
O   2.87118719120078   0.781666559766079   0.294654277907188
H   4.05307908673298   2.87035228046781   2.48694703923048  
H   5.25118098440044   2.37715263016249   0.744799890412698 
O   5.62429770850066   6.5218669523079   3.45780301664596   
H   7.71500457346495   0.491847058578266   2.04692895280828 
H   0.577245549170478   7.06842626485721   6.31987667666954 
O   1.24911533974614   3.64534082243949   1.16183104604218  
H   2.60199540407912   1.12151929945644   7.96286845618174  
H   4.54404148149497   0.945580202677487   3.91654352796149 
O   8.43141773410119   4.02048598217009   5.83188486482432  
H   2.30633220593562   0.527235385120756   0.977981223223471
H   2.48786783368988   5.85508943681993   3.98702801923115  
O   7.42959389624453   2.95736895426531   3.63242261828739  
H   4.29781648319219   6.75713410711885   3.64094418154706  
H   6.30281164250123   6.96513646115758   2.85157267204638   
