  512
 1.65000000000000e+01 0.0 0.0 0.0 1.65000000000000e+01 0.0 0.0 0.0 1.65000000000000e+01
 H  6.43157581508114e+00  1.39143766514468e+01  3.34481811949691e+01 
 H  1.44166637686228e+01  1.92201956368559e+01 -2.74513786571505e+00 
 H  6.11788938767129e+00  7.38870458694268e+00  6.15332769800219e+00 
 H  8.97707080910200e+00  1.13650864456702e+01  1.41716231448610e+01 
 H  1.38025505456265e+01  1.42187693048615e+01  1.31557273174233e+00 
 H  3.75006153719853e+00  1.23198095917235e+01  9.33841672414370e+00 
 H  1.25139493555022e+01  1.67123828050820e+01  1.78262722710426e+01 
 H  7.89668397531030e+00  8.63835473427238e+00  9.10936014837895e+00 
 H  1.42955547436728e+01  1.09617631174405e+01  1.37640816130647e+01 
 H -4.20095376854520e+00 -5.60461591342874e+00  1.07839141763467e+01 
 H  8.98169867214944e+00 -1.71644658377184e+01  1.72466095135750e+00 
 H  6.54117126493631e+00  1.65608404364924e+01  5.42998466094812e+00 
 H  1.64626159951748e+01  1.86045126102652e+01  1.79001471775956e+01 
 H  1.85509377924535e+01  2.32484804190984e+00  1.04883053764249e+01 
 H  7.70990925098811e+00  1.29884107114653e+01  1.31617385558438e+01 
 H -6.31721529926919e+00  1.75633231278262e+01  2.74482035678668e+01 
 H  5.72284388137414e+00  2.74171733255142e+00  5.39774455311459e+00 
 H  3.82087631144335e+00  1.32165097773038e+01  4.57464331551366e+00 
 H  9.66867187011301e+00  1.09745784645345e+01  1.10862363881652e+01 
 H  6.52004242041154e+00  3.92908418639020e+00 -2.17740032452971e+00 
 H  8.71577493753855e+00  1.33528113868084e+01  4.72903897524937e+00 
 H  1.06361455180212e+01  9.13606539680336e+00  3.12241096920726e+00 
 H  9.48915261045199e+00  1.91366939450604e+01  8.36220859558599e+00 
 H  1.66580819281737e+01  9.13009981455023e+00  1.87486987623089e+01 
 H  3.54576430249673e+00 -3.25133229025294e+00  1.04721286751157e+01 
 H  1.26068777635260e+01  9.45962774149215e+00 -3.44483889561238e+00 
 H -8.68322296918439e-01  1.04714495045590e+01  1.86526592225494e+01 
 H -6.83160686957693e+00 -1.69022004844149e+00  7.62566966860431e+00 
 H  4.06259298110878e+00 -5.02138874268451e+00  2.35087566172490e+01 
 H  2.30964111224659e+01  1.78853166103194e+01  1.12962941719033e+01 
 H  9.26671094448187e-02  5.17143321132891e+00  1.85955763640835e+00 
 H  7.41775073020901e+00  9.96938553229403e+00  1.24990576109626e+01 
 H  1.56471950150001e+01  5.56909064434559e+00  3.40095223929008e+00 
 H  4.02649429125122e-01  4.43731023505166e+00  1.74715280421662e+01 
 H  2.11517096506886e+01  8.64457193590301e+00  6.12986193365835e+00 
 H  1.00187542430140e+01  1.38692850876618e+01  1.17772690579638e+01 
 H  5.06816162885007e+00  5.75929827702143e+00  1.09592764619328e+01 
 H  3.52057361024671e+00  1.64236774174328e+01  1.25661385497410e+00 
 H  2.28751019200016e-01  1.35490357554140e+01  1.72488853741701e+01 
 H  9.22291953750156e+00  2.71319409153116e+00  1.17661295003874e+01 
 H  5.71315187780809e-02  2.22749760643437e+01  1.33168085807743e+01 
 H  6.90565371809610e+00  1.26944398002126e+00  1.83130154313684e+00 
 H -9.23609293983150e+00 -3.55197475634086e+00  6.17740638893540e+00 
 H  8.83292560777784e+00  9.59787738633575e+00  2.52087724591375e+00 
 H  2.44663414799540e-01  3.33496633874322e+00  4.70597646259920e+00 
 H  1.60901547927041e+01  3.96864381713162e+00  8.38171972310339e+00 
 H  6.04183918594311e+00 -1.83018384789579e+00 -1.66509648631826e+00 
 H  6.53663103442455e+00  5.87367168023375e+00  1.42685089998963e+00 
 H  1.24134131329204e+01  1.43839290142948e+01 -1.23367025669880e+00 
 H -4.02496449406621e+00  5.08564606090098e+00  1.23342428278184e+01 
 H  1.25951767948868e+01 -2.02658063113564e+00  1.16100691608774e+01 
 H  1.48967945302826e+00  6.40437505338466e+00 -1.66990983675188e+00 
 H  2.46986031607475e+01  6.69533220188218e+00  2.08749194264614e+01 
 H  3.04210266155834e+00  7.73694783347585e+00  1.14794469532552e+01 
 H  3.53712433692877e+00  2.20828526519013e+01  4.51546300897611e+00 
 H  9.10776861976405e+00  4.59239998888047e+00  1.70428703532729e+01 
 H  2.61919607014358e+00  4.15056897171947e+00  5.00339478278525e+00 
 H  2.30753614706576e+00  4.59487681811324e+00  4.91911957171481e+00 
 H  1.07090978444375e+01 -2.96226189737469e+00  1.86664470173530e+01 
 H  1.71584271263548e+01  8.48373111473733e+00  1.91785304530955e+01 
 H -1.33432608142973e+01  1.25817846592437e+01  1.24010966061360e-02 
 H -2.52196311723726e+00  8.39820596544485e+00  6.02764902534788e+00 
 H  4.75231942186413e+00  1.77282362299404e+01  1.48260075723829e+01 
 H  8.71011569322965e+00  4.26988612238169e+00  1.88115815528897e+01 
 H  1.10243594363555e+01  2.01974220184196e+01  3.45057339294849e+00 
 H  2.68584184638055e+00  1.91934634028023e+01  1.56972981950809e+01 
 H -7.89119612271683e+00  1.07499509026627e+01 -6.97391488054093e+00 
 H  6.83210566852037e+00  9.84015668334903e+00  8.89491104952983e+00 
 H  8.46567564003249e+00  8.00158000891679e+00  9.75379940417638e+00 
 H  2.89594355842265e+00  1.73716074832303e+00 -2.66784524248151e+00 
 H -1.99474127484580e-01 -7.61479941028591e+00  6.75074610857448e+00 
 H  1.08743519882895e+01  3.42397383670043e+00 -1.71983122022934e+00 
 H  8.67757442345237e+00  1.14503029391094e+01  1.20956942853614e+01 
 H -3.80311332569811e-01  2.34927577694787e+00  1.49119065599963e+01 
 H  1.45623284872792e+01  4.52170868504331e+00  1.39238421304458e+01 
 H  2.14966733443847e+01  1.58527539174746e+01  3.29997965296606e+00 
 H  1.83750930767924e+01  7.43757654706555e+00 -1.58866939950939e-01 
 H  1.40070865954479e+01  7.13061240726032e+00  1.04935423367168e+01 
 H  1.38546508980000e+01  1.35978070601029e+01 -1.59927805800269e+00 
 H  2.13885082519177e+01  4.70802148425014e+00  1.35685939425790e+00 
 H  5.22127181121622e+00  6.89569824660535e+00  2.18104200349669e+00 
 H -7.48453627234389e+00 -7.22077665398744e+00  1.76586437777034e+01 
 H  1.82473634541046e+01 -1.83228656551471e+00  1.17524138534124e+00 
 H  2.61821491507721e+00  5.82242721983134e+00  1.12992756313743e+01 
 H -8.35779545184374e-01  2.04197300085519e+01  1.53753088386738e+01 
 H  5.79766975655248e+00  1.98581591146759e+01  2.80924744212475e+01 
 H  3.19216602076101e+00  1.89231698237896e+01  2.06586532272443e+01 
 H  9.14009790561331e+00  1.57017366990473e+01  7.79311294182105e+00 
 H  1.93268859864264e+01  1.58211198055861e+01  7.76642037879404e+00 
 H  1.74754030360442e+01  2.21030096395288e+01  8.23883318887942e-01 
 H  1.70024374556822e+01  1.64823983506444e+01  1.10431237594262e+01 
 H  1.61521801307213e+01  4.18133860384014e+00  7.21809170842765e+00 
 H -7.79821973633419e+00  1.56460040553872e+00  1.63655940491394e+01 
 H  8.36555434937974e+00  5.49004030362345e+00  1.25611854926687e+01 
 H  5.12313854531846e+00  3.22757193426876e+00  2.35315142502422e+01 
 H  1.15720543920648e+01  2.09444093314050e+01  5.85404697816120e-01 
 H  8.79861580461915e+00 -6.56850058344221e+00  3.72103139474143e+00 
 H  1.34697693261165e+00  6.86210580647687e+00 -9.73687317792600e+00 
 H -1.29483566328534e+01  7.28931236750187e+00 -5.46308109027270e+00 
 H -3.76006977530871e+00 -7.48902764784773e+00  1.41394608821005e+01 
 H  3.55912581023435e+00  6.05378127534173e+00  1.32268797225352e+01 
 H  2.21666544452984e+01 -1.45247793822919e+00  1.46830139257912e+01 
 H  2.63067626765465e+00  1.77350974826220e+01  7.37249596236333e+00 
 H  1.36364516428153e+01  1.27771440501241e+01  3.55946296293279e+00 
 H  9.72275212698632e+00  1.93370345231894e+01  2.63514381230695e+00 
 H  7.45518489286453e+00  7.04765532229512e+00  1.11190174808606e+01 
 H  7.85600667084574e+00  2.98041110287851e+00  3.41639271840324e+00 
 H -1.07884168345319e+00 -2.84403206784567e-01  6.15100944063267e+00 
 H  8.22612837650836e+00  8.73064432205093e+00  5.54098734462544e-01 
 H  1.04543163597219e+00  5.66280235548603e-01  3.86184377832622e+00 
 H  2.16803645167602e+01 -2.75673752921084e+00  2.51686889105463e+01 
 H  7.67850958762930e+00  1.24818555663887e+01  1.55154742157856e+01 
 H  2.42509619066311e+01  1.77313151402086e+01  2.14711855392828e+01 
 H  1.44546835847751e+01  1.25906452703882e+01  1.40841548385180e+01 
 H  5.43827481622990e+00  1.53356360776726e+01 -6.07491806675871e+00 
 H  1.63477524271990e+01  1.59749406867107e+01  1.24187207966690e+01 
 H  9.19767336284874e-01  2.82149763297792e+00  5.56994718364985e+00 
 H  6.47714631028985e+00  1.16263208517476e+01 -6.33660616364644e+00 
 H  1.63770573897069e+01 -1.81514053017855e+00  1.06566542208737e+01 
 H  6.38295958049882e+00  4.52237877725538e+00  1.15759856799273e+01 
 H  6.92223946071992e+00 -1.27526382339602e+01 -3.78880478073288e+00 
 H  9.43820983539212e+00  1.38681548970723e+01  1.73827156994487e+01 
 H  1.25601057585860e+01 -2.26907054491558e+00  2.89023851457737e+00 
 H  1.15962189732832e+01  2.09740806053878e+01  2.05603288298471e+01 
 H  2.02959617979358e+00  6.68476571321399e+00  4.38951885245903e+00 
 H  9.34388950627959e+00  3.85719554105168e-01  7.36165202026744e+00 
 H -1.66044446332966e+00  1.20702050695846e+01  1.37612641282926e+01 
 H  1.01844691645972e+01  2.72474827644035e+00  9.99320521674834e+00 
 N  1.97036967738963e+01  1.19380806064036e+01  1.29771927097254e+01 
 N  1.08436069599456e+01  1.78021475980709e+01  6.36163108608207e+00 
 N  1.27700202585038e+01  6.43507392030587e+00  1.53240796882159e+01 
 N  7.90882320462031e+00  1.06731709822897e+01  1.31871555344359e+01 
 N  4.82575065143101e-01  1.42267348109118e+01  1.29040775461174e+01 
 N  2.75459085981082e-01  1.77303266748642e+01 -5.86396701799595e-01 
 N  1.40917190994791e+01  9.22436262971313e+00  1.53344446672328e+00 
 N  7.25189707865443e+00  4.64322963930682e+00  1.66775951026308e-01 
 N  1.51848816491825e+01  1.46901073884008e+01  2.20822249939985e+00 
 N  1.73381148159987e+01  1.17929188172128e+01  1.59505864614384e+01 
 N  1.52131080340842e+01  2.79183832431394e+00  1.20463390684881e+01 
 N  7.83433530186196e+00  5.47585944750300e+00  7.52752220088634e-01 
 N  1.16761799410538e+01  3.85656038699741e+00  2.17962956524501e+00 
 N  5.88537859453886e+00  1.00708254071481e+01  1.13773099495348e+01 
 N  4.31805611006810e-01  1.39559954818689e+01  9.60247863391698e+00 
 N  8.58557407138410e-01  7.31285758981462e+00  1.13638946425960e+01 
 N  4.87717940124856e+00  7.36012596522346e+00  1.49517546300279e+01 
 N  6.06465030064622e+00  9.20478004332006e+00  1.67263928810044e+01 
 N  1.15369388337081e+01  1.26818262436545e+01  1.70032063842348e-01 
 N  1.10182693057654e+01  1.03604587578243e+00  1.23065409067418e+01 
 N  1.04405057203019e+01  4.67636732330126e+00  1.69395969188816e-01 
 N  1.47703580317581e+01  1.34824655267675e+01  1.51823181527582e+01 
 N  1.63047219312439e-01  1.14935448479590e+01  1.77385030473908e+01 
 N  7.24633493525417e+00  1.17534385146205e+01  7.86564882692813e+00 
 N  1.57339537412962e+01  1.33639605656509e+01  5.97110016093532e+00 
 N  1.13805754811929e+01  1.28775527820805e+01  6.08539690549475e+00 
 N  1.67201217520866e+01  7.33750772674274e+00  3.91570342983160e+00 
 N  1.47696462279175e+01  9.02806147621758e+00  1.21759431649011e+01 
 N  6.37259184741356e+00  1.39055629738389e+01  5.03677483987942e+00 
 N  3.70380868661295e+00  1.69350351205002e+01  6.07678658503977e+00 
 N  6.12387604536795e+00  6.25131584399776e+00 -3.85931226891202e-01 
 N  9.61714035222026e+00  6.83709699186688e+00  1.71958732959490e+01 
 N  8.99693260626162e-01  1.96519216927732e+00  2.16019902718771e+01 
 N  6.39034616873938e+00 -6.06471072672889e-01  7.61250463568435e-01 
 N  1.37071271797509e+01  1.31348590395826e+01  9.76828269721305e-01 
 N  7.63978417596014e+00  4.00880741779840e+00  1.18772953514491e+01 
 N  9.22821855720943e+00  7.90560518991824e+00  1.71802388769666e+01 
 N  1.58864128030124e+01  1.33029734508970e+01  1.63076399400370e+01 
 N  3.34606377366679e+00  5.19098855453833e+00  8.74248083557795e+00 
 N  4.61259612026483e+00  8.75077136447283e+00  2.26439367833742e+00 
 N  8.84219236096657e-01  1.12864904747313e+01  2.73524178618908e+00 
 N  2.76901606539509e+00  5.94283643186382e-01  1.03545433266163e+00 
 N  1.05830937769345e+01  9.78218763842097e+00  1.50554893599557e+01 
 N  1.63427302240890e+01  5.59419674651979e+00  1.03297123633799e+00 
 N  6.95095328999443e+00  3.31892990878593e+00  1.14610856437337e+00 
 N  1.23213179160448e+01  5.92181858322181e+00  8.60870609632138e+00 
 N  1.44647359529373e+01  1.48130158297155e+01  1.04818443366203e+01 
 N -5.19505102658068e+00  3.74280665113351e+00 -9.67702586995971e-01 
 N  5.53172926102337e+00  1.52483084629555e+01  1.18128140234256e+01 
 N -2.17871267439671e+00 -1.12963305337912e+00  1.47049700011598e+01 
 N  1.84629504495232e+01  7.19590360474522e+00 -1.13054443875563e+00 
 N  5.50233953558653e+00  6.43744042611088e+00  6.50588775177580e+00 
 N  6.06599815650479e+00  1.87812646316505e+01 -1.63473562598223e+00 
 N  8.67889390520294e+00  3.18665246210071e+00  1.12398086570652e+01 
 N  1.94632229808781e+00  3.62189147866184e+00  3.41621072261234e+00 
 N  7.42375443789371e+00 -1.53437134875272e+00  1.34201959490041e+01 
 N  1.16051138186073e-02  7.30385321933189e+00  1.24710429389992e+01 
 N  1.82992714801697e+00  1.11816015006058e+01  1.00126375441230e+01 
 N -2.99172069870048e+00  1.12736079195090e+01  8.94467704731098e+00 
 N  6.98515082541765e+00  1.70349531807575e+01  1.61270364376689e+01 
 N  4.97693410960951e-01  6.38538765837106e+00  6.88493560778718e+00 
 N  3.12902445469521e+00  1.22419063047741e+01  1.39759946413236e+01 
 N  1.42204845889884e+01 -9.85056974575805e-01  4.94185495232588e+00 
 N  9.96888706804228e+00  7.33012252099791e+00  1.00674271160434e+01 
 N  3.50758731627406e+00  1.69371736673428e+01  8.02552386409669e+00 
 N -2.93369075780433e-01  2.95060446955895e+00  6.18230751258827e+00 
 N  1.37214214509074e+01  6.13057194467891e+00  3.80289204910292e+00 
 N  1.26967526167761e+01  4.87255942492875e+00  1.15077334919420e+01 
 N  1.02152475889291e+01  8.73477320447781e+00  1.77953431079897e+01 
 N  4.90235858544666e+00 -3.11057294529485e+00  1.33375112043127e+01 
 N  6.43054447261566e+00  4.00663902612146e+00  2.65003686931054e+00 
 N  3.19270373157967e+00  7.21061630663282e+00  9.30941926261182e+00 
 N  5.43888849396530e+00  1.21954910918120e+01  1.17270002617148e+01 
 N  1.04573737513779e+01  8.85049781790293e+00  1.29701058357663e+01 
 N  1.35411647940072e+01  3.55296374025726e+00  8.79396618901695e+00 
 N  1.86706757572947e+01  1.55732495362446e+01  1.18288315330591e+01 
 N  1.59164785021084e+01  1.44285678264869e+01 -3.49671107449725e+00 
 N  1.78954602948904e+01  9.93256267237853e+00  1.26478860660722e+01 
 N  1.21768496414679e+01  1.40113696255502e+01  8.15988098075106e+00 
 N  1.04521877840686e+01  4.62272393678456e+00  8.40821831186504e+00 
 N  4.40208056591580e+00  7.87315548723703e+00  1.78296003475765e+01 
 N  1.59546476868446e+01  1.23002522818428e+01  5.67391532023683e+00 
 N  3.92317578022474e+00  4.33874232124499e+00  1.46377249633632e+01 
 N  2.40412626282048e+00  6.19066324091482e+00  1.79705662678176e+00 
 N  7.81340266378193e+00  1.96110481808375e+00  1.36722795527662e+01 
 N  1.43830829246631e+01  5.59853610627146e+00  1.44734053257699e+01 
 N  1.09341692710808e+01  9.75654671332886e+00  4.33254743799066e+00 
 N -3.28663842329444e-01  2.71517641138925e+00  1.36720621174512e+01 
 N -5.30067119537184e-01  1.24969597004564e+01  1.12191700810474e+01 
 N  8.53597693420271e+00  5.48753235283180e+00  7.39517960637812e+00 
 N  8.51855578189467e+00  1.32264081239809e+01  1.04528637442595e+01 
 N  1.50747129049509e+00  8.08481467465541e-01  7.53856617254718e+00 
 N  5.88928777025329e+00  5.10824744598353e+00  1.82400029084809e+01 
 N  6.70689297113664e+00  4.31676189704179e-01  1.16645658833515e+01 
 N  7.19888260568775e+00  1.68855648503072e+00 -2.57166414842571e-01 
 N  1.49150339471370e+01  8.25642196266407e+00  8.39330557923252e+00 
 N  4.35096904761382e+00 -1.28821778685585e+00  2.98496405785243e+00 
 N -1.23302206121174e+00  1.73490235930775e+00  1.76238766642488e+01 
 N  9.63018347049459e+00  1.61484346455200e+01  5.13263904381692e+00 
 N  1.60962951734284e+01  3.58720975455579e+00  1.13419889867499e+01 
 N -1.74256926881734e+00  1.45331320643193e+00  7.23847528198146e+00 
 N  5.52816215024075e+00  1.30033966273256e+01  6.46832163896632e+00 
 N  1.61376188344311e+01  1.09999782569466e-01  7.54756147660465e+00 
 N  1.24911369444990e+01  3.64797065348339e+00  1.51503919379344e+01 
 N  5.84240900607085e+00  1.83654063322739e+01  9.12795539495539e+00 
 N -1.85380418997351e-01  6.88423926325845e+00  9.30282714744420e+00 
 N  9.50884587795121e+00  1.68607358946795e+01  1.09970810568617e+01 
 N  9.31153399500085e-01  8.40465136099682e+00  4.82709829569897e+00 
 N  9.96245853867159e+00  1.43999552250754e+01  1.80581043752269e+01 
 N  3.29795648712986e+00  9.77759901925637e+00  1.25415288000604e+01 
 N  6.16635106713239e+00  1.04028307288969e+01  1.03609257817547e+01 
 N  6.93624686101954e+00  7.58820411533713e+00  2.77597688549630e+00 
 N  9.83818863845481e+00  5.22833410888399e+00  4.88830134176083e+00 
 N  3.38674148909223e+00  8.19024192125990e+00  8.83205051502805e+00 
 N  1.16602662017998e+01 -1.18397267499814e+00  4.08595564820299e+00 
 N  1.51222129454324e+01  1.57366487596682e+01  1.56854460767082e+01 
 N  3.82276755042679e+00  3.37641746711481e+00  3.49575531950014e+00 
 N  1.23539200050964e+01  7.46458365697918e+00  1.49279564266602e+01 
 N  8.71639843771752e+00  7.74457469007691e+00  1.49273072327841e+01 
 N  1.11981904244688e+01  1.04994515443146e+01  1.61597921148124e+01 
 N  1.08406863401519e+01  5.99444147815537e+00  6.10480398407265e+00 
 N  1.40366069369868e+01  9.17608749036997e+00  5.49342127508941e+00 
 N  1.46036681512806e+01  4.83154584467149e+00  7.52269731477130e+00 
 N  1.69757975916124e+00  5.63663373633732e+00  3.60652953756038e+00 
 N  1.25381744037757e+01  1.28428970286012e+01  6.45532475309061e+00 
 N  1.43551153310077e+01  5.53621963470562e+00  1.72615860714104e+01 
 N  7.68196498529776e+00  1.36177124414075e+01  5.82955209752467e+00 
 N  1.21456332705875e+01  1.00972091833877e+01  1.64562294979775e+01 
 N  1.83790889136202e+00  1.36741009128367e+01  1.56299110734218e+01 
 N  1.98572766686213e+01  1.88314079912340e+01  1.32894578002171e+01 
 N  1.90362471900850e+01  2.91588060134348e-01  9.49486801603706e+00 
 N  1.06403332479481e+01  1.18551445147169e+01  9.34973740193939e+00 
 N -4.60827085576992e+00  9.84450537985918e+00  8.72336904367639e+00 
 N  1.74517555793954e+01  1.64633687174759e+01 -2.99635484147703e-01 
 N  1.15378659108347e+01  7.71316161437618e+00  4.17526671713181e+00 
 N  5.85060932316517e+00  1.13295404683979e+01  1.94602132396396e+01 
 N  6.54096010381893e+00  1.22033705939755e+01  3.18152317181745e+00 
 N  9.85093020549833e-01  1.37385569503117e+01  1.05414998809629e+01 
 N  1.11035491747186e+01 -4.53583231863966e-01  9.53186730744124e+00 
 N  7.59912103560488e+00  5.95966293492967e+00  3.73955907890809e+00 
 N  8.05918524301019e+00  1.15469734818141e+01  7.06951226134586e+00 
 N -1.86096106208852e+00  8.36246528585804e+00  1.37972924651575e+01 
 N  1.02210126886070e-01  1.44266049317146e+01  2.33897422367246e+00 
 N  5.10830024798837e+00  8.62333252810731e+00  1.22343348761291e+01 
 N  1.91172581993320e+01  1.15388399149467e+00  3.37476766160005e+00 
 N  7.63916638905538e+00  1.63860853721992e+01 -2.83336713810257e+00 
 N  1.38883108026446e+01  1.13970102076621e+01  5.36547581622197e-01 
 N  2.98387190734088e-03  4.02537848382586e+00  5.99198546003621e+00 
 N  1.00241831438543e+01  2.07706896157014e+00  1.08271285460326e+00 
 N  1.31973340279921e+01  1.74728250701493e+01  1.29847037267614e+01 
 N -3.68540544740858e-01  1.10322348232729e+01  1.56427780934861e+01 
 N  8.51524813571839e+00  1.44123436358304e+01  2.88252406460077e+00 
 N  1.29412774977741e+01  1.42201049468992e+01  1.41668705915972e+01 
 N  1.38993293543284e+01  1.73280085037851e+01  7.94849804670681e+00 
 N  1.65719818354979e+01  4.36367340271282e+00  2.89412983250023e+00 
 N  1.50460835823944e+01  1.02827668141389e+01  1.25858832690284e+01 
 N  9.09275182872439e+00  1.55701687950560e+01  4.23966833965803e+00 
 N  5.39036702068844e-01  1.00815966744383e+00  6.36219698551837e+00 
 N  3.97351607709478e+00  1.52756298854293e+01  1.32454084186097e+00 
 N  1.22366157844576e+01  7.63851041010254e+00  1.13731325739973e+01 
 N  5.61738019535495e+00  2.16569941327635e-01  1.19154369223118e+01 
 N  1.06988642432379e+01  2.27078938015960e+00 -3.62140943643162e+00 
 N  1.52868653075728e+01  8.97857717580804e+00  4.72315712814432e+00 
 N  7.29715869350171e+00  8.53368552896867e-01  6.36504689967203e+00 
 N  1.44063621550385e+01  8.89227888784437e+00  1.90026956644950e+01 
 N  1.48617779586514e+01  1.36792215434158e+01  3.08088936202813e-01 
 N  3.98054994976364e+00  7.96033425006487e+00  5.02280335354920e+00 
 N  5.44849408933321e+00  5.35113268394508e+00  1.00219566307294e+01 
 N  4.07765555805512e+00  1.16095573768893e+01  1.72814930232269e+01 
 N  5.42923671556775e+00  1.70347831674777e+01  3.25192084395506e+00 
 N  9.02421649982816e+00  1.21392612084859e+01  1.69308538731456e+01 
 N -1.32059449835741e+00  6.79393888944163e+00  2.12763565594135e+00 
 N  1.70599988678613e+01  5.20532927571249e+00 -2.07155979341063e+00 
 N  1.25771268068218e+01  5.35220588059414e+00  9.54909260260507e+00 
 N  1.50998179479449e+01  1.28482563228920e+01  8.19525861429068e+00 
 N  1.28165066264513e+01  5.03575078711636e+00  6.58086602449574e+00 
 N  5.28423302772509e+00  1.14897932547903e+01  1.27347489723721e+01 
 N -4.03171755988037e+00  5.74384049773989e-01  1.49766744872326e+01 
 N  1.75550950023098e+01  1.70911376497282e+01  1.36248628176315e+00 
 N  9.64407141853889e+00  1.25916761541999e+01  4.11028368227967e+00 
 N  8.19374751154453e+00  1.63039218513102e+01  2.33471734572778e+00 
 N  4.43775595946199e+00  5.64014910324380e+00  9.24342764639813e+00 
 N  1.88491645853800e+00  9.06887521755911e+00  7.96463251739148e+00 
 N  1.06337867520877e+01  1.18318177608480e+00  1.67900424796470e+01 
 N  2.66742030499584e+00  1.30714680049153e+01  1.94497455066158e+01 
 N  1.25079947220726e+00  8.11497865528275e+00  1.03899293714495e+01 
 N  1.38210695664407e-01  1.21097718897127e+01  1.21646896556443e+01 
 N  8.33886507758506e+00  1.76132796122679e+01  1.35426376425661e+01 
 N  1.15263658660260e+01  1.03373214149858e+01  6.89662427959309e+00 
 N  5.01704801112016e+00  1.68632494122808e+01  1.62669259638731e+01 
 N  6.82128557790219e-01  8.39832961934877e+00  8.21394272213890e+00 
 N  3.55218940825236e+00  3.73887520561293e+00  1.90284255640833e+01 
 N  2.79240806794945e+00  1.09098526942309e+01  9.33367701611865e+00 
 N  1.12509453423386e+01  6.43440775528379e-01  2.40923517479178e+00 
 N  5.33027075456872e+00  4.25077017893689e+00  3.98193518276485e+00 
 N  8.70426877974989e+00  5.87871547292879e+00  1.33970861986560e+01 
 N  1.16217894250365e+01  5.75710055645653e+00  1.28285674295155e+01 
 N  1.50734354799415e+01  7.30279730662612e+00  1.14924579383747e+01 
 N  5.09159786995799e-01  4.41519039455693e+00  8.46285955207993e+00 
 N  7.23316557196423e+00  5.54699698831846e+00  7.82592482207529e+00 
 N  4.00988944141272e+00  3.31011554326930e+00  1.14486300122172e+01 
 N  8.54428854938294e+00  2.50025414180295e+00  1.53132553752805e+01 
 N  3.69602185351450e+00  2.46040935747748e+00  6.81822768977697e+00 
 N  1.55516068512128e+01  1.61967299982229e+01  1.16055629197065e+01 
 N  1.01872039810126e+01  1.59193129919407e+01  1.53174743288366e+01 
 N  1.74914582071146e+01  5.32331200416898e+00  7.38120811285556e+00 
 N  9.79026739405815e+00  9.26680467977315e+00  5.99905502570601e+00 
 N  8.81859648803006e+00  3.63795735742936e+00  5.04345582314931e+00 
 N  1.32296342896978e+01  7.98615136456449e+00  1.38979063954696e+01 
 N  2.11792850789836e+01 -2.87410491345226e+00  9.83443616461558e+00 
 N  1.29879179956734e+01  7.29192361201981e+00  1.19909108024969e+01 
 N  6.55916170723572e+00  1.16024512173722e+01 -1.56962071805731e+00 
 N  1.45269383507351e+01  3.10693943015031e-01  1.15915956726157e+01 
 N -1.02331537087978e+00  3.67009993285825e+00  1.11618025650351e+01 
 N  1.29427683655686e+01  1.13667697635609e+01  5.06023736387206e+00 
 N  1.21007643675456e+00  8.13216699651852e-01  1.29235367561846e+01 
 N  1.99115154990812e+01  1.00695031085922e+01  1.45993323355622e+01 
 N -2.28219557795505e+00  1.98168256343600e+01  2.61636336485217e+00 
 N  8.23185493455441e+00  1.30788307751294e+01  1.17600211535820e+01 
 N  7.75793467666933e+00  1.87490759886917e+00  7.98567613555872e+00 
 N  2.98350549827838e+00  3.81769197500875e+00  1.41098977713539e+01 
 N  5.78230778177552e+00  7.45901036292409e+00  1.28843583965421e+01 
 N  8.67923406201392e+00  1.58681346847820e+00  4.08051458012805e+00 
 N  8.36242526831175e+00  6.79974546984319e+00  6.42106357771363e+00 
 N  3.12060620434022e+00 -1.86880024736052e+00  2.85049813545194e+00 
 N  1.73437066563100e+01  1.10709646478019e+01 -4.07133534963015e+00 
 N  1.27757157999520e+01 -2.02945095364196e+00  8.97088209522030e+00 
 N  1.95292174919268e+01  5.49435853261000e+00  5.97794383553370e+00 
 N  1.09436230563308e+00  6.22533428550096e-01  1.41050852733060e+01 
 N  1.55220211218115e+00  1.94776068862836e+01  6.48579603901550e+00 
 N  1.17987737528507e+01 -1.63059974784589e+00  2.98824071323135e+00 
 N  1.33864210061125e+01  1.11056999043425e+00 -1.20587178186855e+00 
 N  8.04972977121932e+00  1.49204652401700e+01  1.22053346417071e+01 
 N  1.50138382706697e+01  2.61546567544003e+00  1.16837182962421e+01 
 N  3.52577741946309e+00 -8.92279597782784e-01  1.11097147747048e+01 
 N  1.73882049300221e+01  7.08092998521896e+00  5.19429807843044e+00 
 N  9.14055413693269e+00  1.18485158200139e+01  1.57402428387828e+01 
 N  1.24167246723236e+01 -1.00054445166344e+00  1.04366720863727e+00 
 N  4.58353358654758e+00  1.05931408924219e+01  1.95247433522416e+01 
 N  8.93829870134924e+00  8.45032135872855e+00  2.80601360873546e+00 
 N  8.88843358588757e+00  5.62314197741367e+00  4.11756375078469e+00 
 N -2.60409755863634e-01  2.27024321474280e+01  3.44023945136752e+00 
 N  8.40604875396336e+00  2.23127301604972e+00  2.94701019368285e+00 
 N  1.73057739914432e+01  8.84362559221696e-01  1.90164558672620e+01 
 N -2.69721068052311e+00  1.20207911366689e+01  4.07410182111382e+00 
 N  1.10678061337776e+01  1.10382585859680e+01  1.13309701183217e+01 
 N  6.02396601284700e+00  9.18783025021319e+00  6.33026861393856e+00 
 N  1.15639237201407e+01  1.71139848124468e+01  9.52984132291848e+00 
 N  1.11791367912330e+01  6.79042000121199e+00  4.79821105968180e+00 
 N  1.48190682648437e+01  6.68759446729923e+00  4.57160325920691e+00 
 N  1.40480562854750e+01  5.98787348206868e+00  7.73272976567318e+00 
 N  8.14996364872498e-01  1.35671455588689e+01  4.24053807128782e+00 
 N  4.26398047384703e+00  1.61041492164616e+01  5.49422996829497e+00 
 N  1.28533179803146e+01  1.35214224892396e+00  1.20241659724321e+01 
 N  1.56498015344174e+01  1.18574713743018e+01  1.78944744465375e+00 
 N  1.22854795341118e+01  1.53507213480802e+00  5.17711609306956e+00 
 N -1.47114235604620e-02  1.58691617742979e+01  1.52832399989336e+01 
 N  1.24085569831245e+01  4.47154516585721e+00  2.75150772448714e+00 
 N  1.75336495702835e+01 -4.74371856632468e-02  4.49904421666996e+00 
 N  8.97428449143369e+00  1.06519534784474e+01  1.23277961650269e+01 
 N  4.43687312204831e+00  1.10945333614503e+01  6.16180147995200e+00 
 N  1.04790700505302e+01  1.63056308287822e+01 -2.23129412442113e+00 
 N  1.18392403652493e+01  8.71604904231312e+00  3.93642731009734e+00 
 N  5.61004591711461e+00  1.73673749172331e+01  1.45168730262606e+01 
 N  2.55830278085731e+00  9.79008080021659e+00  1.51408063441375e+00 
 N -3.66719922589495e+00  1.19133538322016e+01  1.13022446734802e+01 
 N  1.07289620761311e+01 -2.34254026706568e+00  7.23900449307679e+00 
 N  5.84868808081943e+00  5.67587499995502e+00  7.36602062620346e+00 
 N  2.76717030051695e+00  1.15111122468172e+01  3.96404433540773e+00 
 N  7.54114036587199e+00  7.82989965515062e+00  1.52185012569731e+01 
 N  1.95574152059450e+00  1.66043799703240e+01  1.04364974658409e+01 
 N -2.45343315795480e+00  1.21017307524273e+01  8.57408100725945e+00 
 N -1.74531324194439e+00  2.94250510888505e+00  1.68904402256294e+00 
 N  5.20311679446874e+00  1.93283558817164e+01  1.69471227563739e+01 
 N  1.41963371609355e+01  1.13693532818014e+01 -5.20133995146213e-01 
 N  4.56636838268498e+00  2.44711563188128e+00  5.76326047920806e+00 
 N  5.73349451577773e+00 -1.60663473653180e+00  5.36818250142879e+00 
 N  8.71328099297394e+00  2.04386866963908e+01  8.35931093201449e+00 
 N  4.27331387159381e+00  1.31890895802577e+01  1.40699004185867e+01 
 N  1.07337305378803e+01  1.00956621756991e+01  3.15370987211693e+00 
 N  1.06626389183879e+01  1.08483247618939e+01  6.38884164478850e+00 
 N  7.14131588968493e+00  1.49991424363922e+01  9.59435231063850e+00 
 N  1.53436933009738e+01  1.29610595400447e+00  5.04095196757591e+00 
 N  1.20448493562871e+01  9.42698218058839e+00  9.67783836584752e+00 
 N  9.55772592363438e+00  8.83050543357239e+00  4.93708278757789e+00 
 N  9.17444113887845e-01 -5.25954010523754e+00  7.65228989374664e+00 
 N  4.06837857723536e+00  1.61019063473952e+01  1.69789006303249e-01 
 N  1.50074956953668e+01  6.50103763710349e+00  1.60624701667603e+01 
 N  3.98553333503596e+00  7.52637476912528e+00  1.55881035087543e+01 
 N  1.21758529735796e+01  7.11344746855074e+00  2.42096962935960e+00 
 N  1.66754948890248e+01  9.05136484821252e+00 -4.48984009953870e-01 
 N -4.76093110986142e-02  1.16018351600732e+01  6.82280220890333e+00 
 N  6.80256497684692e+00  8.85250381385697e+00  1.75723713675834e+01 
 N  6.09577792622367e+00  4.95155801121218e+00  1.37847087196863e+01 
 N  3.00913517299037e+00  6.42447245436157e+00  1.25806166857832e+01 
 N  1.33802762775143e+01  1.30795675306526e+01  1.08679171074963e+01 
 N  2.00401455967872e+01  1.06606754908320e+01  1.74430234990776e+01 
 N  9.09633822064615e+00  4.33009183329037e+00 -1.89640961534081e+00 
 N  8.95883393198282e+00  1.43107381687739e+01  1.18598066681284e+01 
 N  3.55038500973495e+00  1.35904098688522e+01  9.28224414699981e+00 
 N  1.48894772129921e+01  7.51433766009552e+00  2.39741092137903e-01 
 N  4.20510182820671e+00  9.87576635326744e+00  4.17037548860215e+00 
 N  1.39620031223283e+01  1.08930867251188e+01  1.28757748624003e+01 
 N  1.26567739435721e+01  4.24040204556314e+00  5.85016847405915e+00 
 N  1.08755539751792e+01  7.55553557099292e+00  9.51484781678388e+00 
 N  6.76534456453103e+00  4.29567333414193e-01  2.02020760237711e+01 
 N  1.52767682987833e+01  1.20365889580654e+01  3.73567238022933e+00 
 N  9.22841064697924e+00  1.33708341007354e+01  3.23896312752943e+00 
 N  7.09379125577563e+00  1.64628429087882e+01  1.68394353324109e+00 
 N  1.05773917656959e+01  5.04707457298799e+00  1.07740393415183e+01 
 N  2.26655589719347e+00  8.62359959077576e+00  1.86320985305178e+00 
 N  3.28386765322350e+00 -6.94086143884385e-01  9.80503109213186e+00 
 N -4.51556434842125e+00  1.35416557996224e+01  2.08633770784511e+01 
 N  3.20031209481663e+00  8.66462738451972e+00  1.31850247773130e+01 
 N  5.97702665745252e+00  4.75956213986731e+00  1.60068285795293e+01 
 N  5.56815797501586e+00  9.51953020042157e+00 -7.76719700274042e-01 
 N  8.01176428172031e+00  6.59835582977846e+00  7.99042458192104e+00 
 N  3.19426979950448e+00  1.54657789084968e+01  6.74302540115133e+00 
 N  3.36965019538736e+00  9.59874307421706e+00  1.54481391184351e+01 
 N  9.45403935845479e+00  7.09068233309990e+00  1.23314574231633e+01 
 N  2.63038457567084e+00  7.21961758349700e+00  7.22484105497279e+00 
 N  1.02984367948653e+01  1.13205762491610e+00  2.60857287198468e+00 
 N  1.19821684560796e+01  2.63295207014751e+00  4.29505872822720e+00 
 N  1.10801670455592e+01  4.68458804585715e+00  1.34961777740233e+01 
 N  8.45942385546999e+00  3.19175939459880e+00  1.78691106865911e+01 
 N  1.62092103774213e+01  8.86841726985509e+00  1.02864153497802e+01 
 N  1.60559912614220e+01  9.27752315474027e+00  5.70495872043468e+00 
 N  9.50758584783929e+00  5.07109871216165e+00  1.01873073916692e+01 
 N  5.85056039104100e+00  8.47080012795748e+00  1.34757717766105e+01 
 N  7.86882193759142e+00  8.16903135807184e+00  1.07758034853740e+01 
 N  4.88109397737085e+00  5.29133248534481e+00  4.88002877467876e+00 
 N  8.02532291705715e+00  9.75704370588104e+00  8.88592957714935e+00 
 N  1.08989774652227e+01  2.39406337626156e+01  1.39269280183336e+01 
 N  6.33829668414724e+00  1.77053385439919e+01  9.80953751902835e+00 
 N  1.42290884133365e+01  7.34409734897380e+00  8.05116387634205e+00 
 N  6.82599898449045e+00  3.64499271842547e+00  5.30080101094765e+00 
 N  1.57576679702610e+01  9.75456056122472e+00  9.69704693055807e+00 
 N  1.42371008386401e+01  1.62393361423381e+01  8.66597432681183e+00 
 N  1.08558246815930e+01  3.41609101027331e+00  1.28757230598235e+01 
 N  5.55293756636936e+00  1.20904681937987e+01 -1.26611780624510e+00 
 N  6.70261369709747e+00  1.88492968811925e+01  7.91984155549728e+00 
 N  1.19687875400468e-01  4.45649421615986e+00  1.53163804992806e+01 
 N  5.54755409620196e+00  1.19105459051205e+01  6.57735859796480e+00 
 N  1.54904416064743e+01  6.47331369499608e+00  1.09066989001031e+01 
 N  1.12146056746073e+01  1.24107372633170e+01  1.10970620407191e+01 
 N  5.86127641675349e+00  1.56973680167929e+01  6.40895080177337e+00 
 N  1.00119430204794e+01  1.16084272152691e+01  8.40324612898938e+00 
 N  8.17517555133903e+00 -1.20489611490207e+00  9.31954287828813e+00 
 N  9.87077375385017e-01  3.64878520811743e+00  7.20656899172576e-01 
 N  8.86548476728161e+00  3.37669087943298e+00  6.18408411814088e+00 
 N  1.13649296051614e+01  9.73174114798567e+00 -3.59442899144833e+00 
 N  9.76386897789577e+00  7.05447466834646e+00  6.30682574892120e+00 
 N  1.32760891908610e+01  2.49548476758960e+00  8.64992390310410e+00 
 N  1.86638563593813e+01  4.11362679159862e+00  7.38788392529331e-01 
 N  8.40050491905851e+00  2.44003509870040e-01  6.47383183487632e+00 
 N  1.53026812827361e+01 -2.22369797284235e-01  3.00548079502677e+00 
 N -4.33308448979693e-01 -3.56944449561018e-01  8.81003159994148e+00 
 N  2.33790196074556e+00  1.38077341693434e+01  1.67124133794294e+01 
 N  1.16490799119022e+01 -2.48758782683220e+00  1.42537053420005e+00 
 N  1.49093307350740e+01  4.62681519601889e-01  5.83087614662806e+00 
 N  1.29467070899855e+01  1.58895801001612e+01  1.35805170768919e+01 
 N  1.39711357353446e+00  2.22381893667801e+00  1.40716940902228e+00 
 N  1.65471413704143e+00 -4.69098728853008e-01  6.56595800226850e+00 
 N  1.68048834846830e+01  1.04989999670721e+01  5.65872300521400e+00 
 N  3.77594107081330e+00  1.03356531395813e+01  6.14164049330925e+00 
 N  1.31166694706055e+01  1.21303664265522e+00  1.69919612186070e-01 
 N  6.91801178802381e+00  6.46933530639407e+00  1.24885654118425e+01 
 N  1.01907500434059e+01  8.54933439701224e+00  2.50253033623030e+00 
 N  5.91712077546675e+00  6.87896976827160e+00  3.42252792674139e+00 
 N -2.02388432407767e-01  1.46303971746236e+01  6.20733579613765e+00 
 N  1.44709719896502e+01 -1.76888699152186e+00  4.20791614625526e+00 
 N  1.70438641014823e+01  9.09465630255476e+00  1.71574991703225e+01 
 N  1.66356097146272e+01  1.05247357850391e+01  4.32817363802686e+00 
 N  1.97534258350390e+01  3.15032963524641e+00  1.22095384272933e+01 
 N  6.40063467652326e+00  9.65154704204555e+00  7.26524863564740e+00 
 N  8.30864745398262e+00  1.37919505337390e+01  1.36942143163008e+01 
 N  1.53703700794532e+01  1.48287430170477e+01  1.12258717853810e+01 
 N  1.02487218749997e+01  1.35272272510711e+01  1.52366838716719e+01 
 N  2.63838136868353e+00  6.31495259814041e+00  2.85294009979089e+00 
 N  8.28186388430564e-01  1.45464329990922e+01  5.12731977331199e+00 
 N  2.13215885235568e+00  1.21287620829347e+01  7.95081903330238e+00 
 N  1.40976997521270e+01  5.93827503262667e+00  1.79999506817585e+00 
 N  1.64134208987276e+01  1.01974212501131e+01  3.15759220111036e+00 
 N  1.06557755847686e+01  2.30368622410540e-01  7.56581463739030e+00
 
